12
H4 C3 O5
O -0.316382 1.267905 1.416717
C 0.347382 2.392270 1.067703
C 0.215715 0.215160 0.676749
O 0.150630 3.478048 1.525049
O 1.227945 2.087785 0.089985
C 1.157939 0.714803 -0.139236
H -0.228559 -0.740531 0.907045
H -0.760438 -1.592537 -0.317330
H 1.932672 0.346963 -0.793942
H -1.884198 -2.694830 -2.136199
O -1.452228 -3.153881 -1.327828
O -0.390479 -2.321154 -0.968714