12
H4 C3 O5
O -0.373675 1.393474 1.292418
C 0.441042 2.472746 1.232098
C 0.179363 0.418209 0.478492
O 0.266573 3.506711 1.802512
O 1.492889 2.179943 0.433878
C 1.302705 0.892398 -0.038434
H -0.338702 -0.523477 0.396693
H -0.968298 -1.756351 -0.525156
H 2.047141 0.484206 -0.702556
H -2.036191 -3.351610 -1.892535
O -1.379654 -3.464374 -1.189808
O -0.633194 -2.251873 -1.287604