12
H4 C3 O5
O -0.221030 1.086410 1.418841
C 0.821757 1.721960 0.861809
C -0.646189 0.019840 0.558045
O 1.419298 2.617266 1.388315
O 1.035614 1.266417 -0.381931
C 0.016595 0.315816 -0.740241
H -1.719308 -0.053119 0.712130
H -0.485616 -1.150946 0.806700
H -0.514223 0.797291 -1.561584
H 0.341825 -0.790886 -1.294110
O -0.090833 -2.389263 -1.195348
O 0.042110 -3.440787 -0.572626