12
H4 C3 O5
O -0.072165 1.058952 1.542622
C 0.576631 2.066703 0.936761
C -0.278706 -0.006547 0.623098
O 0.846018 3.103248 1.472119
O 0.844592 1.704480 -0.327668
C 0.348493 0.391332 -0.593045
H -1.037780 -0.533973 1.192815
H -0.474798 -1.473674 0.273295
H 0.391083 0.417317 -1.677355
H 0.033739 -1.324067 -1.590110
O -0.499484 -2.530218 -1.546170
O -0.677623 -2.873554 -0.306361