22

O         -0.55434        0.30686        0.70273
C         -0.22634       -0.26499        1.73259
C          1.97867        0.28043       -0.23909
C          2.13536       -0.53488        0.99885
C          1.15299       -0.80203        1.87558
H          1.37745       -1.43206        2.73923
H          3.12382       -0.97887        1.14701
C         -1.15794       -0.46264        2.88268
H         -0.71789       -0.06204        3.80850
H         -2.12104        0.01354        2.68136
H         -1.30288       -1.54099        3.05391
C          1.60815       -0.50625       -1.47098
H          0.58390       -0.86936       -1.33130
H          1.61189        0.12909       -2.36882
H          2.27765       -1.36345       -1.61462
H          1.32077        1.14557       -0.09822
O          3.38031        0.85519       -0.49927
H          4.89022        2.55406        1.61758
H          3.65838        1.61663        0.16981
O          4.07092        2.60477        1.10866
H          3.47810        1.15062       -1.42003
H          3.66215        3.46375        1.27334
