11
Li1 H4 C3 O3
H 2.634371 -2.713184 -0.928801
Li 0.516900 1.907268 -0.204604
O -0.101496 0.260391 0.058145
O 1.452444 -1.046377 -1.030513
C 2.675861 -1.637153 -0.701774
C 2.846035 -1.351943 0.813346
O 1.663634 -0.705128 1.175907
C 1.207405 0.035446 -0.032334
H 3.511549 -1.195360 -1.277872
H 3.730388 -0.708316 0.987468
H 2.961859 -2.266603 1.412347