11
Li1 H4 C3 O3
H 4.002178 -2.281994 -0.626386
O -0.433163 0.467734 0.779467
C 2.631992 -1.167565 0.511159
O 2.691786 -1.312646 -1.925868
C 2.930116 -1.967910 -0.759399
H 3.168356 -0.205465 0.487421
H 2.354145 -2.927764 -0.658609
Li 0.097297 2.251125 0.690331
C 0.815418 0.364809 0.665621
H 2.950300 -1.735337 1.401135
O 1.236299 -0.906726 0.658796