12
H4 C3 O5
C -0.885940 1.279588 0.463569
C 0.407844 1.404978 0.717275
C 0.208573 0.366941 -1.216708
O 0.463851 -0.192303 -2.239926
O -1.033206 0.640489 -0.755810
O 1.116130 0.847558 -0.334905
H -1.779686 1.573016 0.989860
H -0.334801 -0.682552 2.126897
H 1.019381 -2.152632 0.877886
H 0.968915 1.840434 1.528096
O 0.076529 -1.946499 0.799657
O -0.272528 -1.649347 2.151244